  24
        -42.15450736
 C         -3.2624567556       -1.0740397867       -0.0000043734
 N         -2.2754344008       -0.0292896574        0.0000359020
 C         -0.9120851382       -0.2075386125       -0.0004880509
 C         -0.3749333299        1.0720554184       -0.0001564184
 N         -1.3570794708        1.9998111614        0.0003858762
 C         -2.4726070186        1.3013159995        0.0005402177
 H         -3.4474896946        1.7467507266        0.0010080843
 N          0.9669701935        1.2880523079       -0.0003374012
 C          1.8275740716        0.2107859932       -0.0000027214
 O          3.0306801280        0.3524772071        0.0002192165
 N          1.2570001166       -1.0570195560       -0.0000714961
 C         -0.0994181855       -1.3854842224       -0.0003307823
 O         -0.4879332634       -2.5400052828       -0.0002686844
 C          2.2118766147       -2.1535108670        0.0005997875
 H          1.6458936552       -3.0819689593        0.0002644601
 H          2.8452151680       -2.0921377814       -0.8838098923
 H          2.8439724684       -2.0920881626        0.8858951171
 C          1.4878336345        2.6373781425       -0.0003075130
 H          1.1373305002        3.1659703185       -0.8863920642
 H          1.1383298601        3.1656042978        0.8863960393
 H          2.5739975007        2.5744621695       -0.0008973695
 H         -3.8918239831       -1.0020514766       -0.8884978421
 H         -3.8928014413       -1.0010907638        0.8876971655
 H         -2.7437217829       -2.0316581902        0.0007283419
